Version 4
SHEET 1 1676 680
WIRE 432 0 304 0
WIRE 592 0 432 0
WIRE 944 0 816 0
WIRE 1104 0 944 0
WIRE 1456 0 1328 0
WIRE 1616 0 1456 0
WIRE 1200 16 1136 16
WIRE 704 48 608 48
WIRE 608 80 608 48
WIRE 624 80 608 80
WIRE 1136 80 1136 16
WIRE 304 96 304 64
WIRE 304 96 272 96
WIRE 320 96 304 96
WIRE 704 96 704 48
WIRE 704 96 688 96
WIRE 816 96 816 64
WIRE 816 96 784 96
WIRE 832 96 816 96
WIRE 1200 96 1200 16
WIRE 1216 96 1200 96
WIRE 1328 96 1328 64
WIRE 1328 96 1296 96
WIRE 1344 96 1328 96
WIRE 592 112 592 0
WIRE 624 112 592 112
WIRE 1104 112 1104 0
WIRE 1136 112 1104 112
WIRE 192 128 192 96
WIRE 432 128 432 0
WIRE 480 128 432 128
WIRE 944 128 944 0
WIRE 992 128 944 128
WIRE 1456 128 1456 0
WIRE 1504 128 1456 128
WIRE 592 144 592 112
WIRE 592 144 544 144
WIRE 1104 144 1104 112
WIRE 1104 144 1056 144
WIRE 1616 144 1616 0
WIRE 1616 144 1568 144
WIRE 192 160 192 128
WIRE 400 160 400 96
WIRE 480 160 400 160
WIRE 912 160 912 96
WIRE 992 160 912 160
WIRE 1424 160 1424 96
WIRE 1504 160 1424 160
WIRE 192 256 192 240
WIRE 304 256 192 256
WIRE 400 256 400 224
WIRE 400 256 304 256
WIRE 912 256 912 224
WIRE 912 256 816 256
WIRE 1424 256 1424 224
WIRE 1424 256 1328 256
WIRE 304 272 304 256
WIRE 816 272 816 256
WIRE 1328 272 1328 256
FLAG 304 272 0
FLAG 192 128 Vi
FLAG 816 272 0
FLAG 1328 272 0
FLAG 1616 144 Vo
SYMBOL Opamps\\opamp 512 80 R0
SYMATTR InstName U1
SYMBOL voltage 192 144 R0
WINDOW 123 24 124 Left 2
WINDOW 39 0 0 Left 0
SYMATTR InstName V1
SYMATTR Value SINE()
SYMATTR Value2 AC 1v 0
SYMBOL res 288 80 R90
WINDOW 0 0 56 VBottom 2
WINDOW 3 32 56 VTop 2
SYMATTR InstName R1
SYMATTR Value 1k
SYMBOL res 416 80 R90
WINDOW 0 0 56 VBottom 2
WINDOW 3 32 56 VTop 2
SYMATTR InstName R2
SYMATTR Value 1k
SYMBOL cap 384 160 R0
SYMATTR InstName C1
SYMATTR Value 33n
SYMBOL cap 288 0 R0
SYMATTR InstName C2
SYMATTR Value 534n
SYMBOL Opamps\\opamp 1024 80 R0
SYMATTR InstName U2
SYMBOL res 800 80 R90
WINDOW 0 0 56 VBottom 2
WINDOW 3 32 56 VTop 2
SYMATTR InstName R3
SYMATTR Value 1k
SYMBOL res 928 80 R90
WINDOW 0 0 56 VBottom 2
WINDOW 3 32 56 VTop 2
SYMATTR InstName R4
SYMATTR Value 1k
SYMBOL cap 896 160 R0
SYMATTR InstName C3
SYMATTR Value 131n
SYMBOL cap 800 0 R0
SYMATTR InstName C4
SYMATTR Value 134n
SYMBOL Opamps\\opamp 1536 80 R0
SYMATTR InstName U3
SYMBOL res 1312 80 R90
WINDOW 0 0 56 VBottom 2
WINDOW 3 32 56 VTop 2
SYMATTR InstName R5
SYMATTR Value 1k
SYMBOL res 1440 80 R90
WINDOW 0 0 56 VBottom 2
WINDOW 3 32 56 VTop 2
SYMATTR InstName R6
SYMATTR Value 1k
SYMBOL cap 1408 160 R0
SYMATTR InstName C5
SYMATTR Value 94n
SYMBOL cap 1312 0 R0
SYMATTR InstName C6
SYMATTR Value 191n
SYMBOL Opamps\\opamp 656 32 R0
SYMATTR InstName U4
SYMBOL Opamps\\opamp 1168 32 R0
SYMATTR InstName U5
TEXT 1504 192 Left 2 !.lib opamp.sub
TEXT 1440 272 Left 2 ;Filtro Sallen key
TEXT 148 296 Left 2 !.ac dec 100 10 10Meg
