Version 4
SHEET 1 880 680
FLAG -16 256 0
SYMBOL Opamps\\opamp 224 96 R0
SYMATTR InstName U1
SYMBOL voltage -16 160 R0
WINDOW 123 24 124 Left 2
WINDOW 39 0 0 Left 0
SYMATTR InstName V1
SYMATTR Value ""
SYMATTR Value2 AC 1v 0
TEXT 184 216 Left 2 !.lib opamp.sub
